Reffs/Redes/Rede_03/_trafo3 - Copia/Reactor.dss
! Created by 42 on 2017-12-19 14:47:34
New Reactor.gnd_r01 Bus1=bus_xfmr_sec_33998182.4 Phases=1 R=15.0 X=0.0
New Reactor.gnd_r02 Bus1=bus_33998182_030.4 Phases=1 R=5.0 X=0.0
New Reactor.gnd_r03 Bus1=bus_33998182_025.4 Phases=1 R=5.0 X=0.0
New Reactor.gnd_r04 Bus1=bus_33998182_031.4 Phases=1 R=5.0 X=0.0
New Reactor.gnd_r05 Bus1=bus_33998182_032.4 Phases=1 R=5.0 X=0.0
New Reactor.gnd_r06 Bus1=bus_33998182_033.4 Phases=1 R=5.0 X=0.0
New Reactor.gnd_r07 Bus1=bus_33998182_029.4 Phases=1 R=5.0 X=0.0
New Reactor.gnd_r08 Bus1=bus_33998182_015.4 Phases=1 R=5.0 X=0.0
New Reactor.gnd_r09 Bus1=bus_33998182_038.4 Phases=1 R=5.0 X=0.0
New Reactor.gnd_r10 Bus1=bus_33998182_037.4 Phases=1 R=5.0 X=0.0
New Reactor.gnd_r11 Bus1=bus_33998182_028.4 Phases=1 R=5.0 X=0.0
New Reactor.gnd_r12 Bus1=bus_33998182_026.4 Phases=1 R=5.0 X=0.0
New Reactor.gnd_r13 Bus1=bus_33998182_027.4 Phases=1 R=5.0 X=0.0
New Reactor.gnd_r14 Bus1=bus_33998182_035.4 Phases=1 R=5.0 X=0.0
New Reactor.gnd_r15 Bus1=bus_33998182_018.4 Phases=1 R=5.0 X=0.0
New Reactor.gnd_r16 Bus1=bus_33998182_019.4 Phases=1 R=5.0 X=0.0
New Reactor.gnd_r17 Bus1=bus_33998182_039.4 Phases=1 R=5.0 X=0.0
New Reactor.gnd_r18 Bus1=bus_33998182_016.4 Phases=1 R=5.0 X=0.0
New Reactor.gnd_r19 Bus1=bus_33998182_024.4 Phases=1 R=5.0 X=0.0
New Reactor.gnd_r20 Bus1=bus_33998182_017.4 Phases=1 R=5.0 X=0.0
New Reactor.gnd_r21 Bus1=bus_33998182_034.4 Phases=1 R=5.0 X=0.0
New Reactor.gnd_r22 Bus1=bus_33998182_020.4 Phases=1 R=5.0 X=0.0
New Reactor.gnd_r23 Bus1=bus_33998182_022.4 Phases=1 R=5.0 X=0.0
New Reactor.gnd_r24 Bus1=bus_33998182_026.4 Phases=1 R=5.0 X=0.0
New Reactor.gnd_r25 Bus1=bus_33998182_019.4 Phases=1 R=5.0 X=0.0
New Reactor.gnd_r26 Bus1=bus_33998182_024.4 Phases=1 R=5.0 X=0.0
New Reactor.gnd_r27 Bus1=bus_33998182_021.4 Phases=1 R=5.0 X=0.0
New Reactor.gnd_r28 Bus1=bus_33998182_023.4 Phases=1 R=5.0 X=0.0
